@!IC, SBASE,REV,XFRRAT,NXFRAT,BASFRQ
0,   100.00, 34,     0,     1, 60.00     / PSS(R)E-34.1    FRI, JUN 30 2017  14:43
 13/05/91 CYME INTERNATIONAL    100.0 1991 S
 IEEE 300-BUS TEST SYSTEM
GENERAL, THRSHZ=0.0001, PQBRAK=0.7, BLOWUP=5.0
GAUSS, ITMX=100, ACCP=1.6, ACCQ=1.6, ACCM=1.0, TOL=0.0001
NEWTON, ITMXN=20, ACCN=1.0, TOLN=0.1, VCTOLQ=0.1, VCTOLV=0.00001, DVLIM=0.99, NDVFCT=0.99
ADJUST, ADJTHR=0.005, ACCTAP=1.0, TAPLIM=0.05, SWVBND=100.0, MXTPSS=99, MXSWIM=10
TYSL, ITMXTY=20, ACCTY=1.0, TOLTY=0.00001
SOLVER, FNSL, ACTAPS=0, AREAIN=0, PHSHFT=0, DCTAPS=0, SWSHNT=0, FLATST=0, VARLIM=-1, NONDIV=0
RATING, 1, "RATE1 ", "RATING SET 1                    "
RATING, 2, "RATE2 ", "RATING SET 2                    "
RATING, 3, "RATE3 ", "RATING SET 3                    "
RATING, 4, "RATE4 ", "RATING SET 4                    "
RATING, 5, "RATE5 ", "RATING SET 5                    "
RATING, 6, "RATE6 ", "RATING SET 6                    "
RATING, 7, "RATE7 ", "RATING SET 7                    "
RATING, 8, "RATE8 ", "RATING SET 8                    "
RATING, 9, "RATE9 ", "RATING SET 9                    "
RATING,10, "RATE10", "RATING SET 10                   "
RATING,11, "RATE11", "RATING SET 11                   "
RATING,12, "RATE12", "RATING SET 12                   "
0 / END OF SYSTEM-WIDE DATA, BEGIN BUS DATA
@!   I,'NAME        ', BASKV, IDE,AREA,ZONE,OWNER, VM,        VA,    NVHI,   NVLO,   EVHI,   EVLO
     1,'1           ', 115.0000,1,   1,   1,   1,1.02828,   6.7928,1.10000,0.90000,1.10000,0.90000
     2,'1           ', 115.0000,1,   1,   1,   1,1.03527,   8.5399,1.10000,0.90000,1.10000,0.90000
     3,'1           ', 230.0000,1,   1,   1,   1,0.99670,   7.4861,1.10000,0.90000,1.10000,0.90000
     4,'1           ', 345.0000,1,   1,   1,   1,1.03014,   5.4786,1.10000,0.90000,1.10000,0.90000
     5,'1           ', 115.0000,1,   1,   1,   1,1.01896,   5.5262,1.10000,0.90000,1.10000,0.90000
     6,'1           ', 115.0000,1,   1,   1,   1,1.03110,   7.8027,1.10000,0.90000,1.10000,0.90000
     7,'1           ', 230.0000,1,   1,   1,   1,0.99307,   7.0517,1.10000,0.90000,1.10000,0.90000
     8,'1           ', 115.0000,2,   1,   1,   1,1.01530,   3.1383,1.10000,0.90000,1.10000,0.90000
     9,'1           ', 115.0000,1,   1,   1,   1,1.00330,   3.6760,1.10000,0.90000,1.10000,0.90000
    10,'1           ', 230.0000,2,   1,   1,   1,1.02050,   2.1752,1.10000,0.90000,1.10000,0.90000
    11,'1           ', 115.0000,1,   1,   1,   1,1.00564,   3.2681,1.10000,0.90000,1.10000,0.90000
    12,'1           ', 230.0000,1,   1,   1,   1,0.99715,   6.0574,1.10000,0.90000,1.10000,0.90000
    13,'1           ', 115.0000,1,   1,   1,   1,0.99767,   0.2549,1.10000,0.90000,1.10000,0.90000
    14,'1           ', 115.0000,1,   1,   1,   1,0.99856,  -4.2092,1.10000,0.90000,1.10000,0.90000
    15,'1           ', 115.0000,1,   1,   1,   1,1.03361,  -8.1149,1.10000,0.90000,1.10000,0.90000
    16,'1           ', 345.0000,1,   1,   1,   1,1.03027,  -2.1743,1.10000,0.90000,1.10000,0.90000
    17,'1           ', 115.0000,1,   1,   1,   1,1.06460, -12.6556,1.10000,0.90000,1.10000,0.90000
    19,'1           ', 230.0000,1,   1,   1,   1,0.98157,   1.8615,1.10000,0.90000,1.10000,0.90000
    20,'1           ', 115.0000,2,   1,   1,   1,1.00100,  -1.6498,1.10000,0.90000,1.10000,0.90000
    21,'1           ', 230.0000,1,   1,   1,   1,0.97499,   2.4337,1.10000,0.90000,1.10000,0.90000
    22,'1           ', 115.0000,1,   1,   1,   1,0.99627,  -1.1624,1.10000,0.90000,1.10000,0.90000
    23,'1           ', 115.0000,1,   1,   1,   1,1.05008,   4.7504,1.10000,0.90000,1.10000,0.90000
    24,'1           ', 230.0000,1,   1,   1,   1,1.00559,   6.8327,1.10000,0.90000,1.10000,0.90000
    25,'1           ', 115.0000,1,   1,   1,   1,1.02334,   2.2515,1.10000,0.90000,1.10000,0.90000
    26,'1           ', 115.0000,1,   1,   1,   1,0.99856,  -0.9227,1.10000,0.90000,1.10000,0.90000
    27,'1           ', 115.0000,1,   1,   1,   1,0.97503,  -4.0848,1.10000,0.90000,1.10000,0.90000
    33,'1           ', 115.0000,1,   1,   1,   1,1.02403, -11.9300,1.10000,0.90000,1.10000,0.90000
    34,'1           ', 345.0000,1,   1,   1,   1,1.04053,  -7.8027,1.10000,0.90000,1.10000,0.90000
    35,'1           ', 115.0000,1,   1,   1,   1,0.97564, -25.8731,1.10000,0.90000,1.10000,0.90000
    36,'1           ', 230.0000,1,   1,   1,   1,1.00107, -22.7374,1.10000,0.90000,1.10000,0.90000
    37,'1           ', 115.0000,1,   1,   1,   1,1.01963, -11.1115,1.10000,0.90000,1.10000,0.90000
    38,'1           ', 115.0000,1,   1,   1,   1,1.01982, -12.4787,1.10000,0.90000,1.10000,0.90000
    39,'1           ', 345.0000,1,   1,   1,   1,1.05282,  -5.6692,1.10000,0.90000,1.10000,0.90000
    40,'1           ', 115.0000,1,   1,   1,   1,1.02116, -12.6726,1.10000,0.90000,1.10000,0.90000
    41,'1           ', 115.0000,1,   1,   1,   1,1.02874, -10.3541,1.10000,0.90000,1.10000,0.90000
    42,'1           ', 345.0000,1,   1,   1,   1,1.04400,  -7.3046,1.10000,0.90000,1.10000,0.90000
    43,'1           ', 115.0000,1,   1,   1,   1,1.00060, -16.9039,1.10000,0.90000,1.10000,0.90000
    44,'1           ', 115.0000,1,   1,   1,   1,1.00899, -17.7040,1.10000,0.90000,1.10000,0.90000
    45,'1           ', 230.0000,1,   1,   1,   1,1.02222, -15.0076,1.10000,0.90000,1.10000,0.90000
    46,'1           ', 345.0000,1,   1,   1,   1,1.03369, -11.7961,1.10000,0.90000,1.10000,0.90000
    47,'1           ', 115.0000,1,   1,   1,   1,0.97812, -23.3385,1.10000,0.90000,1.10000,0.90000
    48,'1           ', 115.0000,1,   1,   1,   1,1.00168, -15.9715,1.10000,0.90000,1.10000,0.90000
    49,'1           ', 115.0000,1,   1,   1,   1,1.04739,  -2.9365,1.10000,0.90000,1.10000,0.90000
    51,'1           ', 115.0000,1,   1,   1,   1,1.02504,  -8.2001,1.10000,0.90000,1.10000,0.90000
    52,'1           ', 115.0000,1,   1,   1,   1,0.99797, -12.1679,1.10000,0.90000,1.10000,0.90000
    53,'1           ', 115.0000,1,   1,   1,   1,0.99607, -17.7795,1.10000,0.90000,1.10000,0.90000
    54,'1           ', 115.0000,1,   1,   1,   1,1.00545, -16.5360,1.10000,0.90000,1.10000,0.90000
    55,'1           ', 115.0000,1,   1,   1,   1,1.01561, -12.7089,1.10000,0.90000,1.10000,0.90000
    57,'1           ', 115.0000,1,   1,   1,   1,1.03383,  -9.2321,1.10000,0.90000,1.10000,0.90000
    58,'1           ', 115.0000,1,   1,   1,   1,0.99155,  -7.5441,1.10000,0.90000,1.10000,0.90000
    59,'1           ', 115.0000,1,   1,   1,   1,0.97866,  -6.9385,1.10000,0.90000,1.10000,0.90000
    60,'1           ', 230.0000,1,   1,   1,   1,1.02670, -10.4524,1.10000,0.90000,1.10000,0.90000
    61,'1           ', 115.0000,1,   1,   1,   1,0.99061,  -5.1662,1.10000,0.90000,1.10000,0.90000
    62,'1           ', 230.0000,1,   1,   1,   1,1.01683,  -2.9888,1.10000,0.90000,1.10000,0.90000
    63,'1           ', 115.0000,2,   1,   1,   1,0.95830, -19.3637,1.10000,0.90000,1.10000,0.90000
    64,'1           ', 230.0000,1,   1,   1,   1,0.94838, -14.7477,1.10000,0.90000,1.10000,0.90000
    69,'1           ', 115.0000,1,   1,   1,   1,0.96285, -25.7916,1.10000,0.90000,1.10000,0.90000
    70,'1           ', 115.0000,1,   1,   1,   1,0.95130, -35.3148,1.10000,0.90000,1.10000,0.90000
    71,'1           ', 115.0000,1,   1,   1,   1,0.97938, -30.0354,1.10000,0.90000,1.10000,0.90000
    72,'1           ', 115.0000,1,   1,   1,   1,0.96957, -27.6287,1.10000,0.90000,1.10000,0.90000
    73,'1           ', 115.0000,1,   1,   1,   1,0.97759, -25.9302,1.10000,0.90000,1.10000,0.90000
    74,'1           ', 230.0000,1,   1,   1,   1,0.99662, -22.1744,1.10000,0.90000,1.10000,0.90000
    76,'1           ', 115.0000,2,   1,   1,   1,0.96320, -26.6931,1.10000,0.90000,1.10000,0.90000
    77,'1           ', 115.0000,1,   1,   1,   1,0.98375, -25.0903,1.10000,0.90000,1.10000,0.90000
    78,'1           ', 115.0000,1,   1,   1,   1,0.98997, -24.1998,1.10000,0.90000,1.10000,0.90000
    79,'1           ', 115.0000,1,   1,   1,   1,0.98198, -25.1239,1.10000,0.90000,1.10000,0.90000
    80,'1           ', 115.0000,1,   1,   1,   1,0.98717, -25.1111,1.10000,0.90000,1.10000,0.90000
    81,'1           ', 345.0000,1,   1,   1,   1,1.03365, -19.0022,1.10000,0.90000,1.10000,0.90000
    84,'1           ', 115.0000,2,   1,   1,   1,1.02500, -17.3127,1.10000,0.90000,1.10000,0.90000
    85,'1           ', 230.0000,1,   1,   1,   1,0.98687, -17.3588,1.10000,0.90000,1.10000,0.90000
    86,'1           ', 230.0000,1,   1,   1,   1,0.99045, -13.7947,1.10000,0.90000,1.10000,0.90000
    87,'1           ', 230.0000,1,   1,   1,   1,0.99136,  -7.2067,1.10000,0.90000,1.10000,0.90000
    88,'1           ', 230.0000,1,   1,   1,   1,1.01505, -21.0997,1.10000,0.90000,1.10000,0.90000
    89,'1           ', 115.0000,1,   1,   1,   1,1.03136, -10.8010,1.10000,0.90000,1.10000,0.90000
    90,'1           ', 115.0000,1,   1,   1,   1,1.02691, -11.0087,1.10000,0.90000,1.10000,0.90000
    91,'1           ', 115.0000,2,   1,   1,   1,1.05200,  -9.0367,1.10000,0.90000,1.10000,0.90000
    92,'1           ', 115.0000,2,   1,   1,   1,1.05200,  -5.9614,1.10000,0.90000,1.10000,0.90000
    94,'1           ', 115.0000,1,   1,   1,   1,0.99268,  -8.9004,1.10000,0.90000,1.10000,0.90000
    97,'1           ', 115.0000,1,   1,   1,   1,1.01814, -12.8846,1.10000,0.90000,1.10000,0.90000
    98,'1           ', 115.0000,2,   1,   1,   1,1.00000, -14.2479,1.10000,0.90000,1.10000,0.90000
    99,'1           ', 115.0000,1,   1,   1,   1,0.98935, -20.0018,1.10000,0.90000,1.10000,0.90000
   100,'1           ', 115.0000,1,   1,   1,   1,1.00593, -14.0882,1.10000,0.90000,1.10000,0.90000
   102,'1           ', 115.0000,1,   1,   1,   1,1.00063, -14.8691,1.10000,0.90000,1.10000,0.90000
   103,'1           ', 115.0000,1,   1,   1,   1,1.02863, -11.8009,1.10000,0.90000,1.10000,0.90000
   104,'1           ', 115.0000,1,   1,   1,   1,0.99566, -16.9950,1.10000,0.90000,1.10000,0.90000
   105,'1           ', 115.0000,1,   1,   1,   1,1.02214, -12.7103,1.10000,0.90000,1.10000,0.90000
   107,'1           ', 115.0000,1,   1,   1,   1,1.00938, -15.8378,1.10000,0.90000,1.10000,0.90000
   108,'1           ', 115.0000,2,   1,   1,   1,0.99000, -19.9896,1.10000,0.90000,1.10000,0.90000
   109,'1           ', 115.0000,1,   1,   1,   1,0.97495, -25.9507,1.10000,0.90000,1.10000,0.90000
   110,'1           ', 115.0000,1,   1,   1,   1,0.97291, -24.5378,1.10000,0.90000,1.10000,0.90000
   112,'1           ', 115.0000,1,   1,   1,   1,0.97254, -28.6126,1.10000,0.90000,1.10000,0.90000
   113,'1           ', 115.0000,1,   1,   1,   1,0.97033, -25.4668,1.10000,0.90000,1.10000,0.90000
   114,'1           ', 115.0000,1,   1,   1,   1,0.97470, -28.5180,1.10000,0.90000,1.10000,0.90000
   115,'2           ', 115.0000,1,   2,   2,   1,0.95029,  10.6595,1.10000,0.90000,1.10000,0.90000
   116,'2           ', 115.0000,1,   2,   2,   1,1.03464,  17.4408,1.10000,0.90000,1.10000,0.90000
   117,'2           ', 115.0000,1,   2,   2,   1,0.93633,  23.2838,1.10000,0.90000,1.10000,0.90000
   118,'2           ', 115.0000,1,   2,   2,   1,0.92996,  24.3687,1.10000,0.90000,1.10000,0.90000
   119,'2           ', 115.0000,2,   2,   2,   1,1.04350,  38.7245,1.10000,0.90000,1.10000,0.90000
   120,'2           ', 115.0000,1,   2,   2,   1,1.01262,  35.3912,1.10000,0.90000,1.10000,0.90000
   121,'2           ', 115.0000,1,   2,   2,   1,0.87177,  13.7390,1.10000,0.90000,1.10000,0.90000
   122,'2           ', 115.0000,1,   2,   2,   1,0.93217,   8.5202,1.10000,0.90000,1.10000,0.90000
   123,'2           ', 115.0000,1,   2,   2,   1,0.98051,   3.9578,1.10000,0.90000,1.10000,0.90000
   124,'2           ', 115.0000,2,   2,   2,   1,1.02330,  14.3093,1.10000,0.90000,1.10000,0.90000
   125,'2           ', 115.0000,2,   2,   2,   1,1.01030,  -5.5810,1.10000,0.90000,1.10000,0.90000
   126,'2           ', 115.0000,1,   2,   2,   1,0.98561,  -1.3468,1.10000,0.90000,1.10000,0.90000
   127,'2           ', 230.0000,1,   2,   2,   1,0.99671,  -6.5225,1.10000,0.90000,1.10000,0.90000
   128,'2           ', 230.0000,1,   2,   2,   1,1.00186,  -4.5688,1.10000,0.90000,1.10000,0.90000
   129,'2           ', 230.0000,1,   2,   2,   1,1.00122,  -3.7556,1.10000,0.90000,1.10000,0.90000
   130,'2           ', 230.0000,1,   2,   2,   1,1.01868,   6.6724,1.10000,0.90000,1.10000,0.90000
   131,'2           ', 230.0000,1,   2,   2,   1,0.98591,   6.9884,1.10000,0.90000,1.10000,0.90000
   132,'2           ', 230.0000,1,   2,   2,   1,1.00552,   4.9449,1.10000,0.90000,1.10000,0.90000
   133,'2           ', 230.0000,1,   2,   2,   1,1.00147,  -6.7492,1.10000,0.90000,1.10000,0.90000
   134,'2           ', 230.0000,1,   2,   2,   1,1.02262,  -5.6877,1.10000,0.90000,1.10000,0.90000
   135,'2           ', 230.0000,1,   2,   2,   1,1.02258,  -5.8101,1.10000,0.90000,1.10000,0.90000
   136,'2           ', 230.0000,1,   2,   2,   1,1.04943,  -0.4866,1.10000,0.90000,1.10000,0.90000
   137,'2           ', 230.0000,1,   2,   2,   1,1.04510,  -6.7357,1.10000,0.90000,1.10000,0.90000
   138,'2           ', 230.0000,2,   2,   2,   1,1.05500, -16.1388,1.10000,0.90000,1.10000,0.90000
   139,'2           ', 115.0000,1,   2,   2,   1,1.01109,  -8.6406,1.10000,0.90000,1.10000,0.90000
   140,'2           ', 230.0000,1,   2,   2,   1,1.04154,  -8.5234,1.10000,0.90000,1.10000,0.90000
   141,'2           ', 230.0000,2,   2,   2,   1,1.05100,  -4.8268,1.10000,0.90000,1.10000,0.90000
   142,'2           ', 230.0000,1,   2,   2,   1,1.01394,  -6.9232,1.10000,0.90000,1.10000,0.90000
   143,'2           ', 230.0000,2,   2,   2,   1,1.04350,   0.3832,1.10000,0.90000,1.10000,0.90000
   144,'2           ', 230.0000,1,   2,   2,   1,1.01668,  -2.7237,1.10000,0.90000,1.10000,0.90000
   145,'2           ', 230.0000,1,   2,   2,   1,1.00795,  -4.2527,1.10000,0.90000,1.10000,0.90000
   146,'2           ', 230.0000,2,   2,   2,   1,1.05280,  -0.1194,1.10000,0.90000,1.10000,0.90000
   147,'2           ', 230.0000,2,   2,   2,   1,1.05280,   3.8427,1.10000,0.90000,1.10000,0.90000
   148,'2           ', 230.0000,1,   2,   2,   1,1.05777,  -3.4547,1.10000,0.90000,1.10000,0.90000
   149,'2           ', 230.0000,2,   2,   2,   1,1.07350,   1.4148,1.10000,0.90000,1.10000,0.90000
   150,'2           ', 230.0000,1,   2,   2,   1,0.98668,   7.2715,1.10000,0.90000,1.10000,0.90000
   151,'2           ', 230.0000,1,   2,   2,   1,1.00476,   5.3647,1.10000,0.90000,1.10000,0.90000
   152,'2           ', 230.0000,2,   2,   2,   1,1.05350,   6.8394,1.10000,0.90000,1.10000,0.90000
   153,'2           ', 230.0000,2,   2,   2,   1,1.04350,   7.1207,1.10000,0.90000,1.10000,0.90000
   154,'2           ', 115.0000,1,   2,   2,   1,0.96721,  -5.5180,1.10000,0.90000,1.10000,0.90000
   155,'2           ', 230.0000,1,   2,   2,   1,1.01670,   2.6231,1.10000,0.90000,1.10000,0.90000
   156,'2           ', 115.0000,2,   2,   2,   1,0.96300,   1.0407,1.10000,0.90000,1.10000,0.90000
   157,'2           ', 230.0000,1,   2,   2,   1,0.94901,  10.1516,1.10000,0.90000,1.10000,0.90000
   158,'2           ', 230.0000,1,   2,   2,   1,0.96317,   9.7116,1.10000,0.90000,1.10000,0.90000
   159,'2           ', 230.0000,1,   2,   2,   1,0.93594,  14.1853,1.10000,0.90000,1.10000,0.90000
   160,'2           ', 230.0000,1,   2,   2,   1,0.98632,  12.1906,1.10000,0.90000,1.10000,0.90000
   161,'2           ', 230.0000,1,   2,   2,   1,1.03552,   5.2441,1.10000,0.90000,1.10000,0.90000
   162,'2           ', 230.0000,1,   2,   2,   1,0.99062,  14.1770,1.10000,0.90000,1.10000,0.90000
   163,'2           ', 230.0000,1,   2,   2,   1,1.03739,  -1.9944,1.10000,0.90000,1.10000,0.90000
   164,'2           ', 230.0000,1,   2,   2,   1,0.98212,   5.3134,1.10000,0.90000,1.10000,0.90000
   165,'2           ', 230.0000,1,   2,   2,   1,0.99956,  21.9974,1.10000,0.90000,1.10000,0.90000
   166,'2           ', 230.0000,1,   2,   2,   1,0.99689,  25.9128,1.10000,0.90000,1.10000,0.90000
   167,'2           ', 230.0000,1,   2,   2,   1,0.96905,  -6.2635,1.10000,0.90000,1.10000,0.90000
   168,'2           ', 230.0000,1,   2,   2,   1,1.00190,  -4.5938,1.10000,0.90000,1.10000,0.90000
   169,'2           ', 230.0000,1,   2,   2,   1,0.98544,  -6.1321,1.10000,0.90000,1.10000,0.90000
   170,'2           ', 115.0000,2,   2,   2,   1,0.92900,   1.6534,1.10000,0.90000,1.10000,0.90000
   171,'2           ', 115.0000,2,   2,   2,   1,0.98290, -11.2270,1.10000,0.90000,1.10000,0.90000
   172,'2           ', 115.0000,1,   2,   2,   1,1.02443, -11.0990,1.10000,0.90000,1.10000,0.90000
   173,'2           ', 115.0000,1,   2,   2,   1,0.98330, -17.2835,1.10000,0.90000,1.10000,0.90000
   174,'2           ', 115.0000,1,   2,   2,   1,1.06219,  -7.5276,1.10000,0.90000,1.10000,0.90000
   175,'2           ', 115.0000,1,   2,   2,   1,0.97335, -11.3975,1.10000,0.90000,1.10000,0.90000
   176,'2           ', 115.0000,2,   2,   2,   1,1.05220,   0.4946,1.10000,0.90000,1.10000,0.90000
   177,'2           ', 115.0000,2,   2,   2,   1,1.00770,  -3.4881,1.10000,0.90000,1.10000,0.90000
   178,'2           ', 115.0000,1,   2,   2,   1,0.93955, -10.6016,1.10000,0.90000,1.10000,0.90000
   179,'2           ', 115.0000,1,   2,   2,   1,0.96960, -13.3757,1.10000,0.90000,1.10000,0.90000
   180,'2           ', 115.0000,1,   2,   2,   1,0.97912,  -7.1670,1.10000,0.90000,1.10000,0.90000
   181,'2           ', 230.0000,1,   2,   2,   1,1.04867,  -7.2506,1.10000,0.90000,1.10000,0.90000
   182,'2           ', 230.0000,1,   2,   2,   1,1.04348,  -9.2733,1.10000,0.90000,1.10000,0.90000
   183,'2           ', 115.0000,1,   2,   2,   1,0.97178,   3.7188,1.10000,0.90000,1.10000,0.90000
   184,'2           ', 230.0000,1,   2,   2,   1,1.03880,  -4.4890,1.10000,0.90000,1.10000,0.90000
   185,'2           ', 230.0000,2,   2,   2,   1,1.05220,  -1.9739,1.10000,0.90000,1.10000,0.90000
   186,'2           ', 230.0000,2,   2,   2,   1,1.06500,  -3.4864,1.10000,0.90000,1.10000,0.90000
   187,'2           ', 230.0000,2,   2,   2,   1,1.06500,  -4.5039,1.10000,0.90000,1.10000,0.90000
   188,'2           ', 230.0000,1,   2,   2,   1,1.05072,  -6.5925,1.10000,0.90000,1.10000,0.90000
   189,'3           ',  66.0000,1,   3,   3,   1,0.99746, -25.9474,1.10000,0.90000,1.10000,0.90000
   190,'3           ', 345.0000,2,   3,   3,   1,1.05510, -20.7474,1.10000,0.90000,1.10000,0.90000
   191,'3           ', 230.0000,2,   3,   3,   1,1.04350,  12.0862,1.10000,0.90000,1.10000,0.90000
   192,'3           ', 230.0000,1,   3,   3,   1,0.93804, -11.3283,1.10000,0.90000,1.10000,0.90000
   193,'3           ',  66.0000,1,   3,   3,   1,0.98943, -26.1888,1.10000,0.90000,1.10000,0.90000
   194,'3           ', 345.0000,1,   3,   3,   1,1.04854, -19.3334,1.10000,0.90000,1.10000,0.90000
   195,'3           ', 345.0000,1,   3,   3,   1,1.03548, -20.9109,1.10000,0.90000,1.10000,0.90000
   196,'3           ', 115.0000,1,   3,   3,   1,0.96955, -25.4344,1.10000,0.90000,1.10000,0.90000
   197,'3           ', 115.0000,1,   3,   3,   1,0.99069, -23.8369,1.10000,0.90000,1.10000,0.90000
   198,'3           ', 115.0000,2,   3,   3,   1,1.01500, -20.7033,1.10000,0.90000,1.10000,0.90000
   199,'3           ', 115.0000,1,   3,   3,   1,0.95286, -26.1624,1.10000,0.90000,1.10000,0.90000
   200,'3           ', 115.0000,1,   3,   3,   1,0.95510, -26.0520,1.10000,0.90000,1.10000,0.90000
   201,'1           ',  66.0000,1,   1,   1,   1,0.96885, -27.6126,1.10000,0.90000,1.10000,0.90000
   202,'3           ',  66.0000,1,   3,   3,   1,0.99078, -25.4540,1.10000,0.90000,1.10000,0.90000
   203,'3           ', 115.0000,1,   3,   3,   1,1.00330, -22.4719,1.10000,0.90000,1.10000,0.90000
   204,'3           ',  66.0000,1,   3,   3,   1,0.97128, -25.7986,1.10000,0.90000,1.10000,0.90000
   205,'3           ',  66.0000,1,   3,   3,   1,0.98345, -26.1583,1.10000,0.90000,1.10000,0.90000
   206,'3           ',  66.0000,1,   3,   3,   1,0.99926, -27.4233,1.10000,0.90000,1.10000,0.90000
   207,'1           ',  66.0000,1,   1,   1,   1,1.01404, -27.4204,1.10000,0.90000,1.10000,0.90000
   208,'3           ',  66.0000,1,   3,   3,   1,0.99270, -26.3680,1.10000,0.90000,1.10000,0.90000
   209,'3           ',  66.0000,1,   3,   3,   1,0.99986, -25.7633,1.10000,0.90000,1.10000,0.90000
   210,'3           ', 115.0000,1,   3,   3,   1,0.97883, -24.3365,1.10000,0.90000,1.10000,0.90000
   211,'3           ', 115.0000,1,   3,   3,   1,1.00158, -23.4373,1.10000,0.90000,1.10000,0.90000
   212,'3           ', 138.0000,1,   3,   3,   1,1.01307, -22.6304,1.10000,0.90000,1.10000,0.90000
   213,'3           ',  16.5000,2,   3,   3,   1,1.01000, -11.7986,1.10000,0.90000,1.10000,0.90000
   214,'3           ', 138.0000,1,   3,   3,   1,0.99185, -17.6574,1.10000,0.90000,1.10000,0.90000
   215,'3           ', 138.0000,1,   3,   3,   1,0.98657, -20.3581,1.10000,0.90000,1.10000,0.90000
   216,'3           ', 138.0000,1,   3,   3,   1,0.97503, -22.6545,1.10000,0.90000,1.10000,0.90000
   217,'3           ', 138.0000,1,   3,   3,   1,1.02129, -22.3243,1.10000,0.90000,1.10000,0.90000
   218,'3           ', 138.0000,1,   3,   3,   1,1.00726, -22.7537,1.10000,0.90000,1.10000,0.90000
   219,'3           ', 345.0000,1,   3,   3,   1,1.05505, -21.2740,1.10000,0.90000,1.10000,0.90000
   220,'3           ', 138.0000,2,   3,   3,   1,1.00800, -21.8527,1.10000,0.90000,1.10000,0.90000
   221,'3           ', 138.0000,2,   3,   3,   1,1.00000, -22.6167,1.10000,0.90000,1.10000,0.90000
   222,'3           ',  20.0000,2,   3,   3,   1,1.05000, -23.2924,1.10000,0.90000,1.10000,0.90000
   223,'3           ', 138.0000,1,   3,   3,   1,0.99644, -22.8256,1.10000,0.90000,1.10000,0.90000
   224,'3           ', 230.0000,1,   3,   3,   1,1.00204, -21.6874,1.10000,0.90000,1.10000,0.90000
   225,'3           ', 230.0000,1,   3,   3,   1,0.94594, -11.4930,1.10000,0.90000,1.10000,0.90000
   226,'3           ', 230.0000,1,   3,   3,   1,1.01922, -21.7354,1.10000,0.90000,1.10000,0.90000
   227,'3           ',  27.0000,2,   3,   3,   1,1.00000, -27.3462,1.10000,0.90000,1.10000,0.90000
   228,'3           ', 138.0000,1,   3,   3,   1,1.04226, -21.0667,1.10000,0.90000,1.10000,0.90000
   229,'3           ', 138.0000,1,   3,   3,   1,1.04948, -20.0713,1.10000,0.90000,1.10000,0.90000
   230,'3           ',  20.0000,2,   3,   3,   1,1.04000, -13.9496,1.10000,0.90000,1.10000,0.90000
   231,'3           ', 345.0000,1,   3,   3,   1,1.05323, -21.3483,1.10000,0.90000,1.10000,0.90000
   232,'3           ', 138.0000,1,   3,   3,   1,1.04119, -23.3234,1.10000,0.90000,1.10000,0.90000
   233,'3           ',  66.0000,2,   3,   3,   1,1.00000, -26.0262,1.10000,0.90000,1.10000,0.90000
   234,'3           ', 138.0000,1,   3,   3,   1,1.03860, -21.0204,1.10000,0.90000,1.10000,0.90000
   235,'3           ', 138.0000,1,   3,   3,   1,1.00951, -21.1554,1.10000,0.90000,1.10000,0.90000
   236,'3           ',  20.0000,2,   3,   3,   1,1.01650, -15.5246,1.10000,0.90000,1.10000,0.90000
   237,'3           ', 345.0000,1,   3,   3,   1,1.05547, -21.2247,1.10000,0.90000,1.10000,0.90000
   238,'3           ', 138.0000,2,   3,   3,   1,1.01000, -21.0677,1.10000,0.90000,1.10000,0.90000
   239,'3           ', 138.0000,2,   3,   3,   1,1.00000, -15.9889,1.10000,0.90000,1.10000,0.90000
   240,'3           ', 230.0000,1,   3,   3,   1,1.02378, -20.2647,1.10000,0.90000,1.10000,0.90000
   241,'3           ',  20.0000,2,   3,   3,   1,1.05000, -16.6350,1.10000,0.90000,1.10000,0.90000
   242,'3           ', 138.0000,2,   3,   3,   1,0.99300, -17.6531,1.10000,0.90000,1.10000,0.90000
   243,'3           ',  66.0000,2,   3,   3,   1,1.01000, -19.3973,1.10000,0.90000,1.10000,0.90000
   244,'3           ',  66.0000,1,   3,   3,   1,0.99214, -20.3362,1.10000,0.90000,1.10000,0.90000
   245,'3           ',  66.0000,1,   3,   3,   1,0.97108, -21.0203,1.10000,0.90000,1.10000,0.90000
   246,'3           ',  66.0000,1,   3,   3,   1,0.96510, -21.8651,1.10000,0.90000,1.10000,0.90000
   247,'3           ',  66.0000,1,   3,   3,   1,0.96886, -21.7914,1.10000,0.90000,1.10000,0.90000
   248,'3           ',  66.0000,1,   3,   3,   1,0.97605, -25.3497,1.10000,0.90000,1.10000,0.90000
   249,'3           ',  66.0000,1,   3,   3,   1,0.97527, -25.7741,1.10000,0.90000,1.10000,0.90000
   250,'3           ',  66.0000,1,   3,   3,   1,1.01961, -23.9162,1.10000,0.90000,1.10000,0.90000
   281,'3           ', 230.0000,1,   3,   3,   1,1.02513, -20.1919,1.10000,0.90000,1.10000,0.90000
   319,'1           ', 230.0000,1,   1,   1,   1,1.01514,   2.2868,1.10000,0.90000,1.10000,0.90000
   320,'1           ', 115.0000,1,   1,   1,   1,1.01458,  -1.4231,1.10000,0.90000,1.10000,0.90000
   322,'1           ', 115.0000,1,   1,   1,   1,1.00035, -17.2839,1.10000,0.90000,1.10000,0.90000
   323,'1           ', 230.0000,1,   1,   1,   1,0.98052, -13.2946,1.10000,0.90000,1.10000,0.90000
   324,'1           ', 115.0000,1,   1,   1,   1,0.97494, -23.1479,1.10000,0.90000,1.10000,0.90000
   526,'1           ', 115.0000,1,   1,   1,   1,0.94287, -36.0521,1.10000,0.90000,1.10000,0.90000
   528,'1           ', 115.0000,1,   1,   1,   1,0.97237, -37.7337,1.10000,0.90000,1.10000,0.90000
   531,'1           ', 115.0000,1,   1,   1,   1,0.96043, -29.2520,1.10000,0.90000,1.10000,0.90000
   552,'1           ', 115.0000,1,   1,   1,   1,1.00088, -23.5095,1.10000,0.90000,1.10000,0.90000
   562,'1           ', 230.0000,1,   1,   1,   1,0.97787, -28.1740,1.10000,0.90000,1.10000,0.90000
   609,'1           ', 115.0000,1,   1,   1,   1,0.95829, -28.9392,1.10000,0.90000,1.10000,0.90000
   664,'3           ', 345.0000,1,   3,   3,   1,1.03057, -17.1194,1.10000,0.90000,1.10000,0.90000
  1190,'1190        ',  86.0000,1,   1,   1,   1,1.03582,  37.5169,1.10000,0.90000,1.10000,0.90000
  1200,'1200        ',  86.0000,1,   1,   1,   1,1.00454,  36.6869,1.10000,0.90000,1.10000,0.90000
  1201,'2           ', 115.0000,1,   2,   2,   1,1.19244,  48.3086,1.10000,0.90000,1.10000,0.90000
  2040,'3           ', 115.0000,1,   3,   3,   1,0.96545, -15.0547,1.10000,0.90000,1.10000,0.90000
  7001,'1           ',  13.8000,2,   1,   1,   1,1.05070,  11.6353,1.10000,0.90000,1.10000,0.90000
  7002,'1           ',  13.8000,2,   1,   1,   1,1.05070,  13.2870,1.10000,0.90000,1.10000,0.90000
  7003,'1           ',  13.8000,2,   1,   1,   1,1.03230,  14.6064,1.10000,0.90000,1.10000,0.90000
  7011,'1           ',  13.8000,2,   1,   1,   1,1.01450,   5.7961,1.10000,0.90000,1.10000,0.90000
  7012,'1           ',  13.8000,2,   1,   1,   1,1.05070,  12.4177,1.10000,0.90000,1.10000,0.90000
  7017,'1           ',  13.8000,2,   1,   1,   1,1.05070, -10.0210,1.10000,0.90000,1.10000,0.90000
  7023,'1           ',  13.8000,2,   1,   1,   1,1.05070,   6.9605,1.10000,0.90000,1.10000,0.90000
  7024,'1           ',  13.8000,2,   1,   1,   1,1.02900,  13.4081,1.10000,0.90000,1.10000,0.90000
  7039,'1           ',  20.0000,2,   1,   1,   1,1.05000,   2.2560,1.10000,0.90000,1.10000,0.90000
  7044,'1           ',  13.8000,2,   1,   1,   1,1.01450, -14.1548,1.10000,0.90000,1.10000,0.90000
  7049,'1           ',  13.8000,3,   1,   1,   1,1.05070,   0.0000,1.10000,0.90000,1.10000,0.90000
  7055,'1           ',  13.8000,2,   1,   1,   1,0.99670,  -7.9991,1.10000,0.90000,1.10000,0.90000
  7057,'1           ',  13.8000,2,   1,   1,   1,1.02120,  -4.6787,1.10000,0.90000,1.10000,0.90000
  7061,'1           ',  13.8000,2,   1,   1,   1,1.01450,   0.2695,1.10000,0.90000,1.10000,0.90000
  7062,'1           ',  13.8000,2,   1,   1,   1,1.00170,   3.8979,1.10000,0.90000,1.10000,0.90000
  7071,'1           ',  13.8000,2,   1,   1,   1,0.98930, -25.5061,1.10000,0.90000,1.10000,0.90000
  7130,'2           ',  13.8000,2,   2,   2,   1,1.05070,  20.1445,1.10000,0.90000,1.10000,0.90000
  7139,'2           ',  13.8000,2,   2,   2,   1,1.05070,  -2.3231,1.10000,0.90000,1.10000,0.90000
  7166,'2           ',  13.8000,2,   2,   2,   1,1.01450,  30.7432,1.10000,0.90000,1.10000,0.90000
  9001,'1           ', 115.0000,1,   1,   9,   1,1.01582, -11.1315,1.10000,0.90000,1.10000,0.90000
  9002,'1           ',   6.6000,2,   1,   9,   1,0.99450, -18.7440,1.10000,0.90000,1.10000,0.90000
  9003,'1           ',   6.6000,1,   1,   9,   1,0.97243, -19.7319,1.10000,0.90000,1.10000,0.90000
  9004,'1           ',   6.6000,1,   1,   9,   1,0.96584, -19.8719,1.10000,0.90000,1.10000,0.90000
  9005,'1           ', 115.0000,1,   1,   9,   1,1.01575, -11.2044,1.10000,0.90000,1.10000,0.90000
  9006,'1           ',   6.6000,1,   1,   9,   1,0.99245, -17.4257,1.10000,0.90000,1.10000,0.90000
  9007,'1           ',   6.6000,1,   1,   9,   1,0.98067, -18.7118,1.10000,0.90000,1.10000,0.90000
  9012,'1           ',   6.6000,1,   1,   9,   1,1.00221, -17.1524,1.10000,0.90000,1.10000,0.90000
  9021,'1           ',   6.6000,1,   1,   9,   1,0.98872, -18.9646,1.10000,0.90000,1.10000,0.90000
  9022,'1           ',   0.6000,1,   1,   9,   1,0.96488, -21.5371,1.10000,0.90000,1.10000,0.90000
  9023,'1           ',   6.6000,1,   1,   9,   1,0.97470, -19.2738,1.10000,0.90000,1.10000,0.90000
  9024,'1           ',   0.6000,1,   1,   9,   1,0.97050, -21.3100,1.10000,0.90000,1.10000,0.90000
  9025,'1           ',   0.6000,1,   1,   9,   1,0.96476, -20.3350,1.10000,0.90000,1.10000,0.90000
  9026,'1           ',   0.6000,1,   1,   9,   1,0.96561, -20.2457,1.10000,0.90000,1.10000,0.90000
  9031,'1           ',   0.6000,1,   1,   9,   1,0.92010, -25.1971,1.10000,0.90000,1.10000,0.90000
  9032,'1           ',   0.6000,1,   1,   9,   1,0.93264, -23.9797,1.10000,0.90000,1.10000,0.90000
  9033,'1           ',   0.6000,1,   1,   9,   1,0.91711, -25.5204,1.10000,0.90000,1.10000,0.90000
  9034,'1           ',   0.6000,1,   1,   9,   1,0.98595, -21.1734,1.10000,0.90000,1.10000,0.90000
  9035,'1           ',   0.6000,1,   1,   9,   1,0.93909, -23.3089,1.10000,0.90000,1.10000,0.90000
  9036,'1           ',   2.3000,1,   1,   9,   1,0.94848, -22.7864,1.10000,0.90000,1.10000,0.90000
  9037,'1           ',   0.6000,1,   1,   9,   1,0.94579, -22.7024,1.10000,0.90000,1.10000,0.90000
  9038,'1           ',   0.6000,1,   1,   9,   1,0.92764, -24.5771,1.10000,0.90000,1.10000,0.90000
  9041,'1           ',   0.6000,1,   1,   9,   1,0.95241, -21.4067,1.10000,0.90000,1.10000,0.90000